FoamFile
{
    version     2.0;
    format      ascii;
    class       volScalarField;
    location    0;
    object      nut;
}
dimensions [0 2 -1 0 0 0 0];
internalField uniform 0.001;
boundaryField
{
    inlet
    {
        type calculated;
        value uniform 0.001;
    }
    face1
    {
        type zeroGradient;
    }
    face2
    {
        type zeroGradient;
    }
    face3
    {
        type zeroGradient;
    }
    step1
    {
        type nutkWallFunction;
        value uniform 0.0;
    }
    step3
    {
        type nutkWallFunction;
        value uniform 0.0;
    }
    outlet
    {
        type calculated;
        value uniform 0.001;
    }
    step2
    {
        type nutkWallFunction;
        value uniform 0.0;
    }
}
