/*--------------------------------*- C++ -*----------------------------------*\
  =========                 |
  \\      /  F ield         | OpenFOAM: The Open Source CFD Toolbox
   \\    /   O peration     | Website:  https://openfoam.org
    \\  /    A nd           | Version:  7
     \\/     M anipulation  |
\*---------------------------------------------------------------------------*/
FoamFile
{
    version     2.0;
    format      ascii;
    class       extendedFeatureEdgeMesh;
    location    "constant/extendedFeatureEdgeMesh";
    object      face3.extendedFeatureEdgeMesh;
}
// * * * * * * * * * * * * * * * * * * * * * * * * * * * * * * * * * * * * * //

// points
8((0.5 0.001 0.3) (0 0.001 0.3) (0 0.001 0.5) (0.6 0.001 0.3) (0.6 0.001 0) (0.5 0.001 0) (1.1 0.001 0.5) (1.1 0.001 0.3))
// edges
8((0 1) (1 2) (3 4) (4 5) (5 0) (6 7) (7 3) (2 6))
// concaveStart mixedStart nonFeatureStart
0 0 8
// internalStart flatStart openStart multipleStart
0 0 0 8
// normals
5{(0 1 0)}
// normal volume types

5
(
0
0
0
0
0
)

// normalDirections

8
(
1(1)
1(1)
1(1)
1(1)
1(1)
1(1)
1(1)
1(1)
)

// edgeNormals

8
(
1(0)
1(0)
1(1)
1(1)
1(2)
1(3)
1(3)
1(4)
)

// featurePointNormals

8
(
1(0)
1(0)
1(0)
1(1)
1(1)
1(1)
1(3)
1(3)
)

// featurePointEdges

8
(
2(0 4)
2(0 1)
2(1 7)
2(2 6)
2(2 3)
2(3 4)
2(5 7)
2(5 6)
)

// regionEdges
8(0 1 2 3 4 5 6 7)


// ************************************************************************* //
