FoamFile
{
    version     2.0;
    format      ascii;
    class       volVectorField;
    location    0;
    object      U;
}
dimensions [0 1 -1 0 0 0 0];
internalField uniform (0.0 0.0 0.0);
boundaryField
{
    inlet
    {
        type fixedValue;
        value uniform (10 0 0);
    }
    face1
    {
        type slip;
    }
    face2
    {
        type slip;
    }
    face3
    {
        type slip;
    }
    face4
    {
        type slip;
    }
    face5
    {
        type slip;
    }
    face6
    {
        type slip;
    }
    face7
    {
        type slip;
    }
    face9
    {
        type slip;
    }
    outlet
    {
        type pressureInletOutletVelocity;
        value uniform (0 0 0);
    }
}
