/*--------------------------------*- C++ -*----------------------------------*\
  =========                 |
  \\      /  F ield         | OpenFOAM: The Open Source CFD Toolbox
   \\    /   O peration     | Website:  https://openfoam.org
    \\  /    A nd           | Version:  7
     \\/     M anipulation  |
\*---------------------------------------------------------------------------*/
FoamFile
{
    version     2.0;
    format      ascii;
    class       extendedFeatureEdgeMesh;
    location    "constant/extendedFeatureEdgeMesh";
    object      face1.extendedFeatureEdgeMesh;
}
// * * * * * * * * * * * * * * * * * * * * * * * * * * * * * * * * * * * * * //

// points
6((0.1 0 0.1) (0 0 0.3) (0 0 0.1) (0.1 0 0) (1 0 0) (1 0 0.3))
// edges
6((1 2) (2 0) (3 4) (0 3) (4 5) (5 1))
// concaveStart mixedStart nonFeatureStart
0 0 6
// internalStart flatStart openStart multipleStart
0 0 0 6
// normals
4{(0 -1 0)}
// normal volume types

4
(
0
0
0
0
)

// normalDirections

6
(
1(1)
1(1)
1(1)
1(1)
1(1)
1(1)
)

// edgeNormals

6
(
1(0)
1(0)
1(1)
1(1)
1(2)
1(3)
)

// featurePointNormals

6
(
1(0)
1(0)
1(0)
1(1)
1(1)
1(2)
)

// featurePointEdges

6
(
2(1 3)
2(0 5)
2(0 1)
2(2 3)
2(2 4)
2(4 5)
)

// regionEdges
6(0 1 2 3 4 5)


// ************************************************************************* //
